data/Transmission_Network_UK_2020.m
% Simplified UK transmission network
% References
% https://ieeexplore-ieee-org.manchester.idm.oclc.org/document/5589807
function mpc = Transmission_Network_UK_2020()


%% MATPOWER Case Format : Version 2
mpc.version = '2';

%%-----  Power Flow Data  -----%%
%% system MVA base
mpc.baseMVA = 100;

%% bus data													
%	bus_i	type	Pd	Qd	Gs	Bs	area	Vm	Va	baseKV	zone	Vmax	Vmin
mpc.bus = [													
1	1	468	102	0	0	1	1	0	275	1	1.05	0.95;
2	1	513	113	0	0	1	1	0	275	1	1.05	0.95;
3	1	555	105	0	0	1	1	0	132	1	1.05	0.95;
4	1	1308	317	0	0	1	1	0	275	1	1.05	0.95;
5	1	502	128	0	0	1	1	0	400	1	1.05	0.95;
6	1	1176	315	0	0	1	1	0	400	1	1.05	0.95;
7	1	745	171	0	0	1	1	0	400	1	1.05	0.95;
8	1	1000	37.4	0	0	1	1	0	400	1	1.05	0.95;
9	1	130	53	0	0	1	1	0	400	1	1.05	0.95;
10	1	2561	465	0	0	1	1	0	400	1	1.05	0.95;
11	1	3360	760	0	0	1	1	0	400	1	1.05	0.95;
12	1	1189	338	0	0	1	1	0	400	1	1.05	0.95;
13	1	2524	766	0	0	1	1	0	400	1	1.05	0.95;
14	1	1831	566.5	0	0	1	1	0	400	1	1.05	0.95;
15	1	2633	694.6	0	0	1	1	0	400	1	1.05	0.95;
16	1	1607	655	0	0	1	1	0	400	1	1.05	0.95;
17	1	1081	371	0	0	1	1	0	400	1	1.05	0.95;
18	1	5362	1935	0	0	1	1	0	400	1	1.05	0.95;
19	1	2019	648	0	0	1	1	0	400	1	1.05	0.95;
20	1	1027.36	305.8	0	0	1	1	0	400	1	1.05	0.95;
21	1	702	202.2	0	0	1	1	0	400	1	1.05	0.95;
22	1	1820	665	0	0	1	1	0	400	1	1.05	0.95;
23	1	4734	1337	0	0	1	1	0	400	1	1.05	0.95;
24	1	1418	528	0	0	1	1	0	400	1	1.05	0.95;
25	1	9734	2902	0	0	1	1	0	400	1	1.05	0.95;
26	1	1424	434	0	0	1	1	0	400	1	1.05	0.95;
27	3	457	138	0	0	1	1	0	400	1	1.05	0.95;
28	1	2751	841	0	0	1	1	0	400	1	1.05	0.95;
29	1	2577	356	0	0	1	1	0	400	1	1.05	0.95;
30  1	0	0	0	0	1	1	0	275	1	1.05	0.95;
];													

%% branch data														
%	fbus	tbus	r	x	b	rateA	rateB	rateC	tap ratio	shift angle	status	angmin	angmax	%name
mpc.branch = [														
1	2	0.0122	0.02	0.0856	525	0	0	0	0	1	-360	360;
1	2	0.0122	0.02	0.2844	525	0	0	0	0	1	-360	360;
1	3	0.007	0.15	0.052	132	0	0	0	2	1	-360	360;
1	3	0.007	0.15	0.052	132	0	0	0	2	1	-360	360;
2	4	0.0004	0.065	0.4454	760	0	0	0	0	1	-360	360;
2	4	0.0004	0.065	0.5545	760	0	0	0	0	1	-360	360;
4	6	0.0013	0.023	0.1496	1500	0	0	0	0	1	-360	360;
4	6	0.0013	0.023	0.1758	1120	0	0	0	0	1	-360	360;
4	5	0.001	0.024	0.125	1000	0	0	0	0	1	-360	360;
4	5	0.001	0.024	0.125	1000	0	0	0	0	1	-360	360;
4	7	0.0021	0.0135	0.1538	1090	0	0	0	0	1	-360	360;
4	7	0.00211	0.0135	0.1174	1090	0	0	0	0	1	-360	360;
5	6	0.00085	0.01051	0.38254	1390	0	0	0	0	1	-360	360;
5	6	0.00151	0.01613	0.59296	1390	0	0	0	0	1	-360	360;
6	9	0.00078	0.00852	0.0737	2100	0	0	0	0	1	-360	360;
6	9	0.00078	0.00852	0.4635	2100	0	0	0	0	1	-360	360;
7	8	0.0004	0.0001	0.728	2180	0	0	0	0	1	-360	360;
7	8	0.0004	0.0001	1.2872	2500	0	0	0	0	1	-360	360;
7	6	0.003	0.2	0.2939	950	0	0	0	0	1	-360	360;
7	6	0.003	0.2	0.2939	950	0	0	0	0	1	-360	360;
8	10	0.00083	0.0175	0.6624	3070	0	0	0	0	1	-360	360;
8	10	0.00083	0.0175	0.6624	3070	0	0	0	0	1	-360	360;
9	11	0.00164	0.0163	0.4868	1390	0	0	0	0	1	-360	360;
9	11	0.00164	0.0163	0.4868	1390	0	0	0	0	1	-360	360;
9	10	0.00352	0.02453	0.1898	855	0	0	0	0	1	-360	360;
9	10	0.00492	0.0343	0.2502	775	0	0	0	0	1	-360	360;
10	15	0.00053	0.00835	5.373	4840	0	0	0	0	1	-360	360;
10	15	0.00052	0.0063	1.0636	4020	0	0	0	0	1	-360	360;
11	15	0.0007	0.042	0.3907	2520	0	0	0	0	1	-360	360;
11	15	0.00099	0.042	0.5738	2520	0	0	0	0	1	-360	360;
11	13	0.0004	0.0052	0.2498	2170	0	0	0	0	1	-360	360;
11	13	0.0004	0.0052	0.2664	2210	0	0	0	0	1	-360	360;
11	12	0.0001	0.0085	0.0798	3320	0	0	0	0	1	-360	360;
11	12	0.0001	0.0085	0.0798	3320	0	0	0	0	1	-360	360;
12	13	0.00096	0.01078	0.385	3100	0	0	0	0	1	-360	360;
12	18	0.00074	0.009	0.2911	2400	0	0	0	2	1	-360	360;
12	18	0.00097	0.009	0.3835	2400	0	0	0	2	1	-360	360;
12	13	0.00096	0.01078	0.385	3100	0	0	0	0	1	-360	360;
13	18	0.00049	0.007	0.1943	2400	0	0	0	0	1	-360	360;
13	18	0.00084	0.007	0.7759	2400	0	0	0	0	1	-360	360;
13	15	0.00137	0.023	0.6643	1240	0	0	0	0	1	-360	360;
13	15	0.00164	0.023	0.1104	955	0	0	0	0	1	-360	360;
13	14	0.00107	0.01163	1.1745	1040	0	0	0	0	1	-360	360;
13	14	0.00082	0.01201	1.2125	1040	0	0	0	0	1	-360	360;
14	16	0.0005	0.016	0.2795	2580	0	0	0	0	1	-360	360;
14	16	0.005	0.018	0.1466	625	0	0	0	0	1	-360	360;
15	16	0.00033	0.0052	0.3534	2770	0	0	0	0	1	-360	360;
15	16	0.00016	0.00172	0.3992	5540	0	0	0	0	1	-360	360;
15	14	0.00019	0.00222	0.7592	5000	0	0	0	0	1	-360	360;
15	14	0.00018	0.00222	0.5573	5000	0	0	0	0	1	-360	360;
16	19	0.00056	0.0141	0.4496	2780	0	0	0	0	1	-360	360;
16	19	0.00056	0.0141	0.4496	3820	0	0	0	0	1	-360	360;
17	16	0.001	0.01072	0.2651	2150	0	0	0	0	1	-360	360;
17	16	0.001	0.01072	0.4573	1890	0	0	0	0	1	-360	360;
17	22	0.00068	0.0097	0.4566	2100	0	0	0	0	1	-360	360;
17	22	0.00069	0.0097	0.4574	2100	0	0	0	0	1	-360	360;
18	17	0.00042	0.0018	0.2349	3100	0	0	0	0	1	-360	360;
18	17	0.00042	0.0018	0.2349	3460	0	0	0	0	1	-360	360;
18	23	0.00138	0.0096	0.4829	1970	0	0	0	0	1	-360	360;
18	23	0.00117	0.0096	0.4122	1970	0	0	0	0	1	-360	360;
20	26	0.00035	0.0023	0.2249	2780	0	0	0	0	1	-360	360;
20	26	0.00035	0.0023	0.2249	2780	0	0	0	0	1	-360	360;
20	19	0.00178	0.0213	0.6682	1590	0	0	0	0	1	-360	360;
20	19	0.00132	0.0143	0.3656	1590	0	0	0	0	1	-360	360;
21	16	0.00145	0.01824	0.9169	2780	0	0	0	0	1	-360	360;
21	16	0.00145	0.01824	0.9169	2780	0	0	0	0	1	-360	360;
21	25	0.00025	0.01	0.1586	2780	0	0	0	0	1	-360	360;
21	25	0.00025	0.01	0.1586	2780	0	0	0	0	1	-360	360;
21	20	0.0012	0.0048	0.4446	2780	0	0	0	0	1	-360	360;
21	20	0.0012	0.0048	0.7	2780	0	0	0	0	1	-360	360;
21	19	0.00037	0.0059	0.294	3030	0	0	0	0	1	-360	360;
21	19	0.00037	0.0059	0.2955	2780	0	0	0	0	1	-360	360;
22	16	0.00178	0.0172	0.8403	2010	0	0	0	0	1	-360	360;
22	16	0.00178	0.0172	0.627	2010	0	0	0	0	1	-360	360;
22	25	0.00037	0.0041	0.4098	3275	0	0	0	0	1	-360	360;
22	25	0.00034	0.0041	0.429	3275	0	0	0	0	1	-360	360;
22	21	0.00019	0.00111	0.1232	2780	0	0	0	0	1	-360	360;
22	21	0.00048	0.0061	0.3041	2780	0	0	0	0	1	-360	360;
23	29	0.00151	0.0182	0.53	2010	0	0	0	0	1	-360	360;
23	24	0.00086	0.0008	0.9622	2780	0	0	0	0	1	-360	360;
23	24	0.00023	0.0007	2.8447	4400	0	0	0	0	1	-360	360;
23	22	0.00055	0.003	0.3468	2780	0	0	0	0	1	-360	360;
23	22	0.00039	0.003	0.2466	2770	0	0	0	0	1	-360	360;
23	29	0.00151	0.0182	0.53	2010	0	0	0	0	1	-360	360;
24	28	0.00068	0.007	0.2388	2210	0	0	0	0	1	-360	360;
24	25	0.00104	0.0091	0.2918	1390	0	0	0	0	1	-360	360;
24	25	0.00104	0.0091	0.2918	1390	0	0	0	0	1	-360	360;
24	28	0.00068	0.007	0.2388	2210	0	0	0	0	1	-360	360;
25	26	0.0002	0.0057	0.532	6960	0	0	0	0	1	-360	360;
25	26	0.0002	0.0057	0.532	5540	0	0	0	0	1	-360	360;
27	26	0.0002	0.00503	0.1797	3100	0	0	0	0	1	-360	360;
27	26	0.0002	0.00503	0.1797	3100	0	0	0	0	1	-360	360;
28	27	0.00038	0.00711	0.2998	3070	0	0	0	0	1	-360	360;
28	27	0.00038	0.00711	0.2998	3070	0	0	0	0	1	-360	360;
29	28	0.00051	0.00796	0.34	2780	0	0	0	0	1	-360	360;
29	28	0.00051	0.00796	0.34	2780	0	0	0	0	1	-360	360;
3	4	0.003	0.041	0.0044	648	0	0	0	0	1	-360	360;
3	4	0.003	0.041	0.044	648	0	0	0	0	1	-360	360;
3	2	0.03004	0.077	0.0124	652	0	0	0	0	1	-360	360;
1	30	0.03004	0.077	0.0124	652	0	0	0	0	1	-360	360;
];				
%% generator data																						
%	bus	Pg	Qg	Qmax	Qmin	Vg	mBase	status	Pmax	Pmin	Pc1	Pc2	Qc1min	Qc1max	Qc2min	Qc2max	ramp_agc	ramp_10	ramp_30	ramp_q	apf	
mpc.gen = [																						
1	396.774	-49.18	139.2209046	-188.4590954	1	100	1	493.5	0	0	0	0	0	0	0	0	0	0	0	0	;
1	441.86232	0	105.2292729	-66.29666644	1	100	1	549.58	0	0	0	0	0	0	0	0	0	0	0	0	;
1	0	0	180	-100	1	100	1	0	0	0	0	0	0	0	0	0	0	0	0	0	;
1	15.05088	0	7.8	-8.99	1	100	1	18.72	0	0	0	0	0	0	0	0	0	0	0	0	;
2	29.28972	0	14.328265	-17.671735	1	100	1	36.43	0	0	0	0	0	0	0	0	0	0	0	0	;
2	1225.296	267.04	1108.510424	-473.3565078	1	100	1	1524	0	0	0	0	0	0	0	0	0	0	0	0	;
2	9.648	0	0	0	1	100	1	12	0	0	0	0	0	0	0	0	0	0	0	0	;
3	311.8716	128.3364	128.3364217	-158.1387783	1	100	1	387.9	0	0	0	0	0	0	0	0	0	0	0	0	;
3	10.88616	0	-3.51124	-3.51124	1	100	1	13.54	0	0	0	0	0	0	0	0	0	0	0	0	;
3	444.612	124.3	144.7939487	-66.16987334	1	100	1	553	0	0	0	0	0	0	0	0	0	0	0	0	;
3	12.15648	0	6.5071	-7.2929	1	100	1	15.12	0	0	0	0	0	0	0	0	0	0	0	0	;
4	20.2608	0	10.65561979	-12.34438021	1	100	1	25.2	0	0	0	0	0	0	0	0	0	0	0	0	;
4	1836.336	597.14	641.4683118	-679.0037586	1	100	1	2284	0	0	0	0	0	0	0	0	0	0	0	0	;
4	273.36	0	150.34	-137.8599087	1	100	1	340	0	0	0	0	0	0	0	0	0	0	0	0	;
4	208.236	0	137.27	-122.95	1	100	1	259	0	0	0	0	0	0	0	0	0	0	0	0	;
5	863.496	-28.9	416.4725632	-429.7731578	1	100	1	1074	0	0	0	0	0	0	0	0	0	0	0	0	;
5	18.6528	0	15.38765205	-9.937777586	1	100	1	23.2	0	0	0	0	0	0	0	0	0	0	0	0	;
6	805.22208	244.84	439.66182	-484.8030489	1	100	1	1001.52	0	0	0	0	0	0	0	0	0	0	0	0	;
6	26.532	0	24.8	-25.5	1	100	1	33	0	0	0	0	0	0	0	0	0	0	0	0	;
6	39.7176	0	12.0901377	-17.4898623	1	100	1	49.4	0	0	0	0	0	0	0	0	0	0	0	0	;
7	182.3472	-111.07	125.7559808	-131.0176558	1	100	1	226.8	0	0	0	0	0	0	0	0	0	0	0	0	;
7	977.664	0	681.3407231	-469.0728269	1	100	1	1216	0	0	0	0	0	0	0	0	0	0	0	0	;
7	887.616	0	220.3438921	-205.2405431	1	100	1	1104	0	0	0	0	0	0	0	0	0	0	0	0	;
10	971.232	233.67	559.1941175	-539.6840776	1	100	1	1208	0	0	0	0	0	0	0	0	0	0	0	0	;
10	1507.5	0	697.1712682	-829.6266854	1	100	1	1875	0	0	0	0	0	0	0	0	0	0	0	0	;
10	337.68	0	167.9526233	-138.0443168	1	100	1	420	0	0	0	0	0	0	0	0	0	0	0	0	;
11	104.77728	0	-57.6	-57.6	1	100	1	130.32	0	0	0	0	0	0	0	0	0	0	0	0	;
11	1934.424	1189.27	1216.095081	-1006.32167	1	100	1	2406	0	0	0	0	0	0	0	0	0	0	0	0	;
11	1576.644	0	873.2160163	-571.4617135	1	100	1	1961	0	0	0	0	0	0	0	0	0	0	0	0	;
11	124.62	0	94.22483304	-75.20860942	1	100	1	155	0	0	0	0	0	0	0	0	0	0	0	0	;
11	835.356	0	670.3158949	-539.0705317	1	100	1	1039	0	0	0	0	0	0	0	0	0	0	0	0	;
12	787.92	357.62	579.9839977	-418.117905	1	100	1	980	0	0	0	0	0	0	0	0	0	0	0	0	;
12	1515.54	0	960.0493991	-853.0598839	1	100	1	1885	0	0	0	0	0	0	0	0	0	0	0	0	;
12	168.84	0	116.4182172	-94.96519991	1	100	1	210	0	0	0	0	0	0	0	0	0	0	0	0	;
12	881.184	0	344.4771874	-575.5228126	1	100	1	1096	0	0	0	0	0	0	0	0	0	0	0	0	;
15	6271.2	1243.37	3535.031883	-2527.871669	1	100	1	7800	0	0	0	0	0	0	0	0	0	0	0	0	;
16	3193.488	0	1587.056017	-1289.624064	1	100	1	3972	0	0	0	0	0	0	0	0	0	0	0	0	;
16	5660.964	3118.9	3653.234202	-3354.578181	1	100	1	7041	0	0	0	0	0	0	0	0	0	0	0	0	;
16	979.272	0	767.3265276	-562.8491075	1	100	1	1218	0	0	0	0	0	0	0	0	0	0	0	0	;
17	1608	356.18	814.2321995	-405.9415934	1	100	1	2000	0	0	0	0	0	0	0	0	0	0	0	0	;
18	1575.84	-45.33	884.9714977	-534.171232	1	100	1	1960	0	0	0	0	0	0	0	0	0	0	0	0	;
18	183.312	0	40.02176281	-73.57823719	1	100	1	228	0	0	0	0	0	0	0	0	0	0	0	0	;
19	2287.38	1201.13	1336.631772	-1468.981903	1	100	1	2845	0	0	0	0	0	0	0	0	0	0	0	0	;
19	327.0672	0	162.7	-162.7	1	100	1	406.8	0	0	0	0	0	0	0	0	0	0	0	0	;
20	964.8	304.42	621.1413306	-523.3801299	1	100	1	1200	0	0	0	0	0	0	0	0	0	0	0	0	;
20	289.44	0	236.64	236.64	1	100	1	360	0	0	0	0	0	0	0	0	0	0	0	0	;
21	534.66	326	326.1499173	-306.0698826	1	100	1	665	0	0	0	0	0	0	0	0	0	0	0	0	;
22	322.4844	130.03	189.7190044	-232.6810031	1	100	1	401.1	0	0	0	0	0	0	0	0	0	0	0	0	;
23	3032.688	1254.4	1589.66533	-1388.267098	1	100	1	3772	0	0	0	0	0	0	0	0	0	0	0	0	;
23	291.852	0	84.80580067	-153.9941993	1	100	1	363	0	0	0	0	0	0	0	0	0	0	0	0	;
23	377.88	0	317.7576473	-211.4291086	1	100	1	470	0	0	0	0	0	0	0	0	0	0	0	0	;
23	2477.13204	0	1200.813571	-1262.242187	1	100	1	3081.01	0	0	0	0	0	0	0	0	0	0	0	0	;
25	1706.892	941	949.3783757	-947.4163172	1	100	1	2123	0	0	0	0	0	0	0	0	0	0	0	0	;
25	0	0	0	0	1	100	1	100	0	0	0	0	0	0	0	0	0	0	0	0	;
26	1559.76	434.93	881.4439996	-431.3501824	1	100	1	1940	0	0	0	0	0	0	0	0	0	0	0	0	;
26	887.616	0	384.1098821	-294.6218936	1	100	1	1104	0	0	0	0	0	0	0	0	0	0	0	0	;
26	1981.86	0	1254.526922	-1114.638015	1	100	1	2465	0	0	0	0	0	0	0	0	0	0	0	0	;
26	0	0	0	0	1	100	1	100	0	0	0	0	0	0	0	0	0	0	0	0	;
27	869.928	416.22	666.0315259	-541.7921399	1	100	1	1082	0	0	0	0	0	0	0	0	0	0	0	0	;
27	173.664	0	71	0	1	100	1	216	0	0	0	0	0	0	0	0	0	0	0	0	;
28	1061.28	248.31	657.8243073	-579.7019351	1	100	1	1320	0	0	0	0	0	0	0	0	0	0	0	0	;
28	167.232	0	60.79357628	-71.20642372	1	100	1	208	0	0	0	0	0	0	0	0	0	0	0	0	;
29	1013.844	-480.42	455.3171992	-480.4288183	1	100	1	1261	0	0	0	0	0	0	0	0	0	0	0	0	;
29	727.62	-159.48	403.3543544	-412.0264373	1	100	1	905	0	0	0	0	0	0	0	0	0	0	0	0	;
29	727.62	-159.48	403.3543544	-412.0264373	1	100	1	905	0	0	0	0	0	0	0	0	0	0	0	0	; % Added G
29	0	0	0	0	1	100	1	100	0	0	0	0	0	0	0	0	0	0	0	0	;
1	0	0	10000	-10000	1	100	1	100000	0	0	0	0	0	0	0	0	0	0	0	0	; % 
2	0	0	10000	-10000	1	100	1	100000	0	0	0	0	0	0	0	0	0	0	0	0	; % 
3	0	0	10000	-10000	1	100	1	100000	0	0	0	0	0	0	0	0	0	0	0	0	; % 
4	0	0	10000	-10000	1	100	1	100000	0	0	0	0	0	0	0	0	0	0	0	0	; % 
5	0	0	10000	-10000	1	100	1	100000	0	0	0	0	0	0	0	0	0	0	0	0	; % 
6	0	0	10000	-10000	1	100	1	100000	0	0	0	0	0	0	0	0	0	0	0	0	; % 
7	0	0	10000	-10000	1	100	1	100000	0	0	0	0	0	0	0	0	0	0	0	0	; % 
8	0	0	10000	-10000	1	100	1	100000	0	0	0	0	0	0	0	0	0	0	0	0	; % 
9	0	0	10000	-10000	1	100	1	100000	0	0	0	0	0	0	0	0	0	0	0	0	; % 
10	0	0	10000	-10000	1	100	1	100000	0	0	0	0	0	0	0	0	0	0	0	0	; % 
11	0	0	10000	-10000	1	100	1	100000	0	0	0	0	0	0	0	0	0	0	0	0	; % 
12	0	0	10000	-10000	1	100	1	100000	0	0	0	0	0	0	0	0	0	0	0	0	; % 
13	0	0	10000	-10000	1	100	1	100000	0	0	0	0	0	0	0	0	0	0	0	0	; % 
14	0	0	10000	-10000	1	100	1	100000	0	0	0	0	0	0	0	0	0	0	0	0	; % 
15	0	0	10000	-10000	1	100	1	100000	0	0	0	0	0	0	0	0	0	0	0	0	; % 
16	0	0	10000	-10000	1	100	1	100000	0	0	0	0	0	0	0	0	0	0	0	0	; % 
17	0	0	10000	-10000	1	100	1	100000	0	0	0	0	0	0	0	0	0	0	0	0	; % 
18	0	0	10000	-10000	1	100	1	100000	0	0	0	0	0	0	0	0	0	0	0	0	; % 
19	0	0	10000	-10000	1	100	1	100000	0	0	0	0	0	0	0	0	0	0	0	0	; % 
20	0	0	10000	-10000	1	100	1	100000	0	0	0	0	0	0	0	0	0	0	0	0	; % 
21	0	0	10000	-10000	1	100	1	100000	0	0	0	0	0	0	0	0	0	0	0	0	; % 
22	0	0	10000	-10000	1	100	1	100000	0	0	0	0	0	0	0	0	0	0	0	0	; % 
23	0	0	10000	-10000	1	100	1	100000	0	0	0	0	0	0	0	0	0	0	0	0	; % 
24	0	0	10000	-10000	1	100	1	100000	0	0	0	0	0	0	0	0	0	0	0	0	; % 
25	0	0	10000	-10000	1	100	1	100000	0	0	0	0	0	0	0	0	0	0	0	0	; % 
26	0	0	10000	-10000	1	100	1	100000	0	0	0	0	0	0	0	0	0	0	0	0	; % 
27	0	0	10000	-10000	1	100	1	100000	0	0	0	0	0	0	0	0	0	0	0	0	; % 
28	0	0	10000	-10000	1	100	1	100000	0	0	0	0	0	0	0	0	0	0	0	0	; % 
29	0	0	10000	-10000	1	100	1	100000	0	0	0	0	0	0	0	0	0	0	0	0	; % 
30	0	0	10000	-10000	1	100	1	100000	0	0	0	0	0	0	0	0	0	0	0	0	; % 
29	727.62	-159.48	403.3543544	-412.0264373	1	100	1	905	0	0	0	0	0	0	0	0	0	0	0	0	;
10	1507.5	0	697.1712682	-829.6266854	1	100	1	1875	0	0	0	0	0	0	0	0	0	0	0	0	;
1	12.83285	0	0	0	1	100	1	100000	0	0	0	0	0	0	0	0	0	0	0	0	; %   2020 update
2	22.14601	0	0	0	1	100	1	100000	0	0	0	0	0	0	0	0	0	0	0	0	; % 
3	0	0	0	0	1	100	1	100000	0	0	0	0	0	0	0	0	0	0	0	0	; % 
4	20.26	0	0	0	1	100	1	100000	0	0	0	0	0	0	0	0	0	0	0	0	; % 
5	0	0	0	0	1	100	1	100000	0	0	0	0	0	0	0	0	0	0	0	0	; % 
6	56.45480	0	0	0	1	100	1	100000	0	0	0	0	0	0	0	0	0	0	0	0	; % 
7	0	0	0	0	1	100	1	100000	0	0	0	0	0	0	0	0	0	0	0	0	; % 
8	37.22788	0	0	0	1	100	1	100000	0	0	0	0	0	0	0	0	0	0	0	0	; % 
9	358.7428	0	0	0	1	100	1	100000	0	0	0	0	0	0	0	0	0	0	0	0	; % 
10	0	0	0	0	1	100	1	100000	0	0	0	0	0	0	0	0	0	0	0	0	; % 
11	223.5091	0	0	0	1	100	1	100000	0	0	0	0	0	0	0	0	0	0	0	0	; % 
12	0	0	0	0	1	100	1	100000	0	0	0	0	0	0	0	0	0	0	0	0	; % 
13	0	0	0	0	1	100	1	100000	0	0	0	0	0	0	0	0	0	0	0	0	; % 
14	330.0236	0	0	0	1	100	1	100000	0	0	0	0	0	0	0	0	0	0	0	0	; % 
15	88.54476	0	0	0	1	100	1	100000	0	0	0	0	0	0	0	0	0	0	0	0	; % 
16	447.4752	0	0	0	1	100	1	100000	0	0	0	0	0	0	0	0	0	0	0	0	; % 
17	341.7294	0	0	0	1	100	1	100000	0	0	0	0	0	0	0	0	0	0	0	0	; % 
18	314.106	0	0	0	1	100	1	100000	0	0	0	0	0	0	0	0	0	0	0	0	; % 
19	1235.928	0	0	0	1	100	1	100000	0	0	0	0	0	0	0	0	0	0	0	0	; % 
20	558.764	0	0	0	1	100	1	100000	0	0	0	0	0	0	0	0	0	0	0	0	; % 
21	199.8798	0	0	0	1	100	1	100000	0	0	0	0	0	0	0	0	0	0	0	0	; % 
22	131.2619	0	0	0	1	100	1	100000	0	0	0	0	0	0	0	0	0	0	0	0	; % 
23	380.3545	0	0	0	1	100	1	100000	0	0	0	0	0	0	0	0	0	0	0	0	; % 
24	137.3883	0	0	0	1	100	1	100000	0	0	0	0	0	0	0	0	0	0	0	0	; % 
25	604.3018    0	0	0	1	100	1	100000	0	0	0	0	0	0	0	0	0	0	0	0	; % 
26	299.3149	0	0	0	1	100	1	100000	0	0	0	0	0	0	0	0	0	0	0	0	; % 
27	158.1385	0	0	0	1	100	1	100000	0	0	0	0	0	0	0	0	0	0	0	0	; % 
28	406.027     0	0	0	1	100	1	100000	0	0	0	0	0	0	0	0	0	0	0	0	; % 
29	0	0	0	0	1	100	1	100000	0	0	0	0	0	0	0	0	0	0	0	0	; % 
30	0	0	0	0	1	100	1	100000	0	0	0	0	0	0	0	0	0	0	0	0	; % 
];																						
																
										

%% generator cost data										
%	1	startup	shutdown	n	x1	y1	...	xn	yn	
%	2	startup	shutdown	n	c(n-1)	...	c0			
mpc.gencost = [										%
2	0	0	2	0	0	;			%
2	0	0	2	0	0	;			%
2	0	0	2	70	0	;			%
2	0	0	2	70	0	;			%
2	0	0	2	0	0	;			%
2	0	0	2	38.05	0	;			%
2	0	0	2	69.76	0	;			%
2	0	0	2	0	0	;			%
2	0	0	2	0	0	;			%
2	0	0	2	0	0	;			%
2	0	0	2	70	0	;			%
2	0	0	2	0	0	;			%
2	0	0	2	46	0	;			%
2	0	0	2	70	0	;			%
2	0	0	2	69.76	0	;			%
2	0	0	2	0	0	;			%
2	0	0	2	38.05	0	;			%
2	0	0	2	0	0	;			%
2	0	0	2	0	0	;			%
2	0	0	2	70	0	;			%
2	0	0	2	0	0	;			%
2	0	0	2	0	0	;			%
2	0	0	2	46	0	;			%
2	0	0	2	0	0	;			%
2	0	0	2	38.05	0	;			%
2	0	0	2	46	0	;			%
2	0	0	2	0	0	;			%
2	0	0	2	0	0	;			%
2	0	0	2	46	0	;			%
2	0	0	2	69.76	0	;			%
2	0	0	2	38.05	0	;			%
2	0	0	2	0	0	;			%
2	0	0	2	38.05	0	;			%
2	0	0	2	69.76	0	;			%
2	0	0	2	70	0	;			%
2	0	0	2	46	0	;			%
2	0	0	2	46	0	;			%
2	0	0	2	38.05	0	;			%
2	0	0	2	69.76	0	;			%
2	0	0	2	46	0	;			%
2	0	0	2	46	0	;			%
2	0	0	2	69.76	0	;			%
2	0	0	2	38.05	0	;			%
2	0	0	2	70	0	;			%
2	0	0	2	0	0	;			%
2	0	0	2	70	0	;			%
2	0	0	2	38.05	0	;			%
2	0	0	2	38.05	0	;			%
2	0	0	2	46	0	;			%
2	0	0	2	46	0	;			%
2	0	0	2	0	0	;			%
2	0	0	2	38.05	0	;			%
2	0	0	2	38.05	0	;			%
2	0	0	2	60	0	;			%
2	0	0	2	46	0	;			%
2	0	0	2	46	0	;			%
2	0	0	2	38.05	0	;			%
2	0	0	2	60	0	;			%
2	0	0	2	0	0	;			%
2	0	0	2	0	0	;			%
2	0	0	2	38.05	0	;			%
2	0	0	2	69.76	0	;			%
2	0	0	2	0	0	;			%
2	0	0	2	38.05	0	;			%
2	0	0	2	53.66	0	;			%
2	0	0	2	200	0	;			
2	0	0	2	200	0	;			
2	0	0	2	200	0	;			
2	0	0	2	200	0	;			
2	0	0	2	200	0	;			
2	0	0	2	200	0	;			
2	0	0	2	200 0	;			
2	0	0	2	200	0	;			
2	0	0	2	200	0	;			
2	0	0	2	200	0	;			
2	0	0	2	200	0	;			
2	0	0	2	200	0	;			
2	0	0	2	200	0	;			
2	0	0	2	200	0	;			
2	0	0	2	200	0	;			
2	0	0	2	200	0	;			
2	0	0	2	200	0	;			
2	0	0	2	200	0	;			
2	0	0	2	200	0	;			
2	0	0	2	200	0	;			
2	0	0	2	200	0	;			
2	0	0	2	200	0	;			
2	0	0	2	200	0	;			
2	0	0	2	200	0	;			
2	0	0	2	200	0	;			
2	0	0	2	200	0	;			
2	0	0	2	200	0	;			
2	0	0	2	200	0	;			
2	0	0	2	200	0	;			
2	0	0	2	201	0;
2	0	0	2	201	0;
2	0	0	2	53.66	0	;			%
2	0	0	2	8.05	0	;			%
2	0	0	2	0	0	;			% 2020
2	0	0	2	0	0	;			%
2	0	0	2	70	0	;			%
2	0	0	2	70	0	;			%
2	0	0	2	0	0	;			%
2	0	0	2	38.05	0	;			%
2	0	0	2	69.76	0	;			%
2	0	0	2	0	0	;			%
2	0	0	2	0	0	;			%
2	0	0	2	0	0	;			%
2	0	0	2	70	0	;			%
2	0	0	2	0	0	;			%
2	0	0	2	46	0	;			%
2	0	0	2	70	0	;			%
2	0	0	2	69.76	0	;			%
2	0	0	2	0	0	;			%
2	0	0	2	38.05	0	;			%
2	0	0	2	0	0	;			%
2	0	0	2	0	0	;			%
2	0	0	2	70	0	;			%
2	0	0	2	0	0	;			%
2	0	0	2	0	0	;			%
2	0	0	2	46	0	;			%
2	0	0	2	0	0	;			%
2	0	0	2	38.05	0	;			%
2	0	0	2	46	0	;			%
2	0	0	2	0	0	;			%
2	0	0	2	0	0	;			%
2	0	0	2	46	0	;			%
2	0	0	2	46	0	;			%
];										